Version 4
SHEET 1 1492 680
WIRE 0 -400 -112 -400
WIRE 96 -400 80 -400
WIRE 208 -400 96 -400
WIRE 400 -400 288 -400
WIRE -32 -256 -48 -256
WIRE -16 -256 -32 -256
WIRE 96 -256 96 -400
WIRE 96 -256 64 -256
WIRE 128 -256 96 -256
WIRE 400 -240 400 -400
WIRE 400 -240 192 -240
WIRE 480 -240 400 -240
WIRE 656 -240 560 -240
WIRE 128 -224 80 -224
WIRE 80 -192 80 -224
FLAG 160 -208 0
FLAG 80 -192 0
FLAG -192 -400 0
FLAG 160 -352 0
FLAG -32 -256 Vin
FLAG 656 -240 Vout
SYMBOL res 96 -416 R90
WINDOW 0 0 56 VBottom 2
WINDOW 3 32 56 VTop 2
SYMATTR InstName R1
SYMATTR Value 100
SYMBOL res 304 -416 R90
WINDOW 0 0 56 VBottom 2
WINDOW 3 32 56 VTop 2
SYMATTR InstName R2
SYMATTR Value 20
SYMBOL OpAmps\\LT1367 160 -304 R0
SYMATTR InstName U1
SYMBOL res 576 -256 R90
WINDOW 0 0 56 VBottom 2
WINDOW 3 32 56 VTop 2
SYMATTR InstName R5
SYMATTR Value 100
SYMBOL res 80 -272 R90
WINDOW 0 0 56 VBottom 2
WINDOW 3 32 56 VTop 2
SYMATTR InstName R3
SYMATTR Value 100
SYMBOL voltage -96 -400 R90
WINDOW 0 -32 56 VBottom 2
WINDOW 3 32 56 VTop 2
WINDOW 123 0 0 Left 0
WINDOW 39 0 0 Left 0
SYMATTR InstName V1
SYMATTR Value 12
SYMBOL voltage 160 -256 R180
WINDOW 0 24 96 Left 2
WINDOW 3 24 16 Left 2
WINDOW 123 0 0 Left 0
WINDOW 39 0 0 Left 0
SYMATTR InstName V3
SYMATTR Value 3.3
TEXT -208 120 Left 2 !.tran 0 0.1 0 0.1 startup
