Version 4
SHEET 1 1028 680
WIRE 224 -736 112 -736
WIRE 112 -640 112 -736
WIRE 224 -608 224 -736
WIRE 112 -512 112 -560
WIRE 240 -432 112 -432
WIRE 704 -416 304 -416
WIRE 912 -416 768 -416
WIRE 240 -400 -80 -400
WIRE 912 -384 912 -416
WIRE 112 -336 112 -432
WIRE 912 -240 912 -304
WIRE 112 -224 112 -256
WIRE 240 -224 112 -224
WIRE 560 -208 304 -208
WIRE 768 -208 624 -208
WIRE -80 -192 -80 -400
WIRE -80 -192 -208 -192
WIRE 240 -192 -80 -192
WIRE 112 -160 112 -224
WIRE 768 -160 768 -208
WIRE 112 -32 112 -80
WIRE 240 -32 112 -32
WIRE 768 -32 768 -80
WIRE 480 -16 304 -16
WIRE 640 -16 544 -16
WIRE -80 0 -80 -192
WIRE 240 0 -80 0
WIRE 640 32 640 -16
WIRE 112 48 112 -32
WIRE 640 160 640 112
WIRE 112 176 112 128
FLAG 912 -240 0
FLAG 768 -32 0
FLAG 640 160 0
FLAG 112 176 0
FLAG 224 -608 0
FLAG 112 -432 a
FLAG 112 -224 b
FLAG 112 -32 c
FLAG 272 -528 0
FLAG 272 -176 0
FLAG 272 -128 0
FLAG 272 16 0
FLAG -208 -272 0
FLAG 272 -384 0
FLAG 272 -320 0
SYMBOL res 128 -240 R180
WINDOW 0 36 76 Left 2
WINDOW 3 36 40 Left 2
SYMATTR InstName R1
SYMATTR Value 1k
SYMBOL res 128 -64 R180
WINDOW 0 36 76 Left 2
WINDOW 3 36 40 Left 2
SYMATTR InstName R2
SYMATTR Value 1k
SYMBOL res 128 144 R180
WINDOW 0 36 76 Left 2
WINDOW 3 36 40 Left 2
SYMATTR InstName R3
SYMATTR Value 1k
SYMBOL res 128 -416 R180
WINDOW 0 36 76 Left 2
WINDOW 3 36 40 Left 2
SYMATTR InstName R4
SYMATTR Value 1k
SYMBOL OpAmps\\LT1367 272 -480 R0
SYMATTR InstName U1
SYMBOL OpAmps\\LT1367 272 -272 R0
SYMATTR InstName U2
SYMBOL OpAmps\\LT1367 272 -80 R0
SYMATTR InstName U3
SYMBOL LED 704 -400 R270
WINDOW 0 72 32 VTop 2
WINDOW 3 0 32 VBottom 2
SYMATTR InstName D1
SYMBOL LED 560 -192 R270
WINDOW 0 72 32 VTop 2
WINDOW 3 0 32 VBottom 2
SYMATTR InstName D2
SYMBOL LED 480 0 R270
WINDOW 0 72 32 VTop 2
WINDOW 3 0 32 VBottom 2
SYMATTR InstName D3
SYMBOL res 896 -400 R0
SYMATTR InstName R5
SYMATTR Value 1k
SYMBOL res 752 -176 R0
SYMATTR InstName R6
SYMATTR Value 1k
SYMBOL res 624 16 R0
SYMATTR InstName R7
SYMATTR Value 1k
SYMBOL voltage 112 -656 R0
WINDOW 123 0 0 Left 0
WINDOW 39 0 0 Left 0
SYMATTR InstName V1
SYMATTR Value 12
SYMBOL voltage 272 -544 R0
WINDOW 123 0 0 Left 0
WINDOW 39 0 0 Left 0
SYMATTR InstName V2
SYMATTR Value 12
SYMBOL voltage 272 -336 R0
WINDOW 123 0 0 Left 0
WINDOW 39 0 0 Left 0
SYMATTR InstName V3
SYMATTR Value 6
SYMBOL voltage 272 -144 R0
WINDOW 123 0 0 Left 0
WINDOW 39 0 0 Left 0
SYMATTR InstName V4
SYMATTR Value 3
SYMBOL voltage -208 -288 R0
WINDOW 123 0 0 Left 0
WINDOW 39 0 0 Left 0
SYMATTR InstName V5
SYMATTR Value 3
TEXT -260 200 Left 2 !.tran 0 0.1 0 0.1 startup
