Version 4
SHEET 1 1240 680
WIRE 192 -48 32 -48
WIRE 400 -48 400 -160
WIRE 400 -48 192 -48
WIRE 464 -48 400 -48
WIRE 624 -48 544 -48
WIRE 688 -48 624 -48
WIRE 976 -48 752 -48
WIRE 1168 -48 976 -48
WIRE 752 16 752 -48
WIRE 976 32 976 -48
WIRE 400 48 400 -48
WIRE 32 64 32 -48
WIRE 848 96 848 80
WIRE 848 96 752 96
WIRE 976 96 976 80
WIRE 192 128 192 -48
WIRE 624 128 624 -48
WIRE 624 128 528 128
WIRE 976 128 976 96
WIRE 976 128 912 128
WIRE 848 192 848 176
WIRE 848 192 528 192
WIRE 864 192 848 192
WIRE 976 240 976 128
WIRE 608 256 528 256
WIRE 752 256 608 256
WIRE 608 304 608 256
WIRE 0 320 -112 320
WIRE 864 336 864 192
WIRE 752 352 752 256
WIRE 0 368 0 320
WIRE -112 384 -112 320
WIRE 608 416 608 384
WIRE 0 480 0 448
WIRE 192 480 192 192
WIRE 192 480 0 480
WIRE 400 480 400 336
WIRE 400 480 192 480
WIRE 608 480 400 480
WIRE 752 480 752 416
WIRE 752 480 608 480
WIRE 864 480 864 416
WIRE 864 480 752 480
FLAG 32 64 0
FLAG 976 240 0
FLAG -112 384 0
FLAG 400 -160 Vin
FLAG 1168 -48 Vout
SYMBOL cap 176 128 R0
SYMATTR InstName C1
SYMATTR Value 33µ
SYMBOL PowerProducts\\LT1082 400 192 R0
SYMATTR InstName U1
SYMBOL ind 560 -64 R90
WINDOW 0 5 56 VBottom 2
WINDOW 3 32 56 VTop 2
SYMATTR InstName L2
SYMATTR Value 250µ
SYMBOL res 736 0 R0
SYMATTR InstName R1
SYMATTR Value 2k
SYMBOL cap 960 32 R0
SYMATTR InstName C2
SYMATTR Value 470µ
SYMBOL res 592 288 R0
SYMATTR InstName R2
SYMATTR Value 4.7k
SYMBOL cap 592 416 R0
SYMATTR InstName C3
SYMATTR Value 0.22µ
SYMBOL cap 736 352 R0
SYMATTR InstName C4
SYMATTR Value 0.01µ
SYMBOL res 848 320 R0
SYMATTR InstName R3
SYMATTR Value 1.1k
SYMBOL diode 688 -32 R270
WINDOW 0 32 32 VTop 2
WINDOW 3 0 32 VBottom 2
SYMATTR InstName D1
SYMBOL pnp 912 176 R180
SYMATTR InstName Q1
SYMBOL voltage 0 464 M180
WINDOW 0 24 96 Left 2
WINDOW 3 24 16 Left 2
WINDOW 123 0 0 Left 0
WINDOW 39 0 0 Left 0
SYMATTR InstName V1
SYMATTR Value -70
TEXT -136 496 Left 2 !.tran 0.01 startup
